%chk=ph3.chk
# opt freq hf/3-21g geom=connectivity

Title Card Required

0 1
 P                 -0.91185411    0.56231002    0.00000000
 H                 -0.46186955   -0.71048764    0.00000000
 H                 -0.46184632    1.19870026    1.10227059
 H                 -0.46184632    1.19870026   -1.10227059

 1 2 1.0 3 1.0 4 1.0
 2
 3
 4

